8
Frame: 0; Minimum total energy: -37.0377erg; Total energy at start (perturbed): -13.288erg; Total energy now: -13.288erg; Discrepancy from stable energy: 64.1231%
Si	0.19637135514	-0.37393921584	-0.0923327342
Si	-0.17043718953	2.79090011847	2.54055344048
Si	2.97932678142	0.0236443497067	3.08267976548
Si	2.38593902502	2.98139492054	0.491462912415
Si	1.04135008145	1.36873814761	1.59356014318
Si	3.64009688213	0.951658923707	4.25819116902
Si	1.38300969579	4.53084123213	3.68176126435
Si	3.62918434171	3.80394276675	1.54855904638
8
Frame: 1; Minimum total energy: -37.0377erg; Total energy at start (perturbed): -13.288erg; Total energy now: -7.74931erg; Discrepancy from stable energy: 79.0773%
Si	0.205513546996	-0.38035710225	-0.0970145739944
Si	-0.170486231361	2.78871031732	2.53779953572
Si	2.99574364276	0.0429233977017	3.12300924859
Si	2.4017490539	2.98907344423	0.501905929418
Si	1.03696761942	1.374441387	1.59627998709
Si	3.61066185322	0.93074995711	4.22156909604
Si	1.3927994102	4.53946366124	3.68079063037
Si	3.61346332204	3.79131957901	1.53991246765
8
Frame: 2; Minimum total energy: -37.0377erg; Total energy at start (perturbed): -13.288erg; Total energy now: -26.4002erg; Discrepancy from stable energy: 28.7208%
Si	0.148210499787	-0.32708378681	-0.0528517423398
Si	-0.172629235178	2.81198817759	2.56453711131
Si	2.8280416519	-0.237196848031	2.67651971587
Si	2.23957140502	2.9063560464	0.408561142689
Si	1.05873896984	1.33240885295	1.55463405401
Si	3.90827057798	1.1732989439	4.59332459254
Si	1.29834925309	4.46422228202	3.67363533778
Si	3.76206587277	3.91853393256	1.64833381677
8
Frame: 3; Minimum total energy: -37.0377erg; Total energy at start (perturbed): -13.288erg; Total energy now: -31.6792erg; Discrepancy from stable energy: 14.4679%
Si	0.0957664237365	-0.337712178219	-0.00257582844996
Si	-0.158552306566	2.78216166687	2.63151612427
Si	2.85706953817	-0.00308674314626	2.81994274001
Si	2.26875504747	2.92306209864	0.342024141411
Si	1.07347159591	1.29697064941	1.54655216758
Si	3.81582682581	1.12843751849	4.46221611296
Si	1.24524733516	4.36187662967	3.75806501556
Si	3.79121959364	3.84377594585	1.46857468388
8
Frame: 4; Minimum total energy: -37.0377erg; Total energy at start (perturbed): -13.288erg; Total energy now: -35.0757erg; Discrepancy from stable energy: 5.29748%
Si	0.00489256542363	-0.267832658417	0.063934754955
Si	-0.221008284761	2.67916228306	2.7976888957
Si	2.81587332029	0.0194366729625	2.73403604104
Si	2.22579788723	2.79130077404	0.198324523235
Si	1.11175138956	1.23883882686	1.50295238639
Si	3.89244996282	1.26487656237	4.40097914966
Si	1.20849095799	4.23328804896	3.7672535908
Si	3.83449712993	3.93106944448	1.45437388306
8
Frame: 5; Minimum total energy: -37.0377erg; Total energy at start (perturbed): -13.288erg; Total energy now: -36.1415erg; Discrepancy from stable energy: 2.41994%
Si	-0.20136516316	-0.169389138399	0.0919704106514
Si	-0.282412628655	2.53307137152	2.81105795076
Si	2.61684726712	0.101779629235	2.70590924919
Si	2.35488886644	2.71266968283	0.0245329605235
Si	1.12215890797	1.18776142787	1.46819062428
Si	3.9076427381	1.33285221683	4.30308392503
Si	1.16847009326	4.01472900606	3.95087177302
Si	3.90473480253	3.89579617522	1.28182552802
8
Frame: 6; Minimum total energy: -37.0377erg; Total energy at start (perturbed): -13.288erg; Total energy now: -36.4592erg; Discrepancy from stable energy: 1.56196%
Si	-0.166059820869	-0.181517437282	0.0687618569963
Si	-0.269086111339	2.56076858034	2.79180853038
Si	2.64811018307	0.0562537660917	2.717253396
Si	2.33905846279	2.7042793198	0.0485026128787
Si	1.10728062864	1.20988940809	1.45246684953
Si	3.88782887108	1.31055737061	4.30331763852
Si	1.16480240305	4.04877191334	3.92794615869
Si	3.87711026843	3.9000078929	1.32660305864
8
Frame: 7; Minimum total energy: -37.0377erg; Total energy at start (perturbed): -13.288erg; Total energy now: -36.6713erg; Discrepancy from stable energy: 0.989469%
Si	-0.209780074611	-0.174326980538	-0.0384137761921
Si	-0.279300251175	2.56377671598	2.70292985453
Si	2.57786890037	-0.149316345925	2.70829161425
Si	2.37183587504	2.56950792383	-0.0120946164125
Si	1.06370583271	1.25505610299	1.33516921623
Si	3.79170991753	1.25017182591	4.16655778934
Si	1.11303890093	3.99762441734	3.99395008033
Si	3.7811560116	3.92544102981	1.40497109163