8
Frame: 0; Minimum total energy: -37.0377erg; Total energy at start (perturbed): 25.3424erg; Total energy now: 25.3424erg; Discrepancy from stable energy: 168.423%
Si	0.985519930486	-0.977150224312	0.254283546298
Si	-0.142731277588	3.58418089098	2.0064245798
Si	2.07746383372	0.0107808614005	2.62891705183
Si	1.78575293536	3.13582100122	0.733343000607
Si	1.82643860431	1.95546619678	0.354897277822
Si	5.06120375141	1.27009125868	4.56566623733
Si	0.678007137865	4.8019847965	4.02911642404
Si	4.15859883288	5.0872545027	1.96377504281
8
Frame: 1; Minimum total energy: -37.0377erg; Total energy at start (perturbed): 25.3424erg; Total energy now: -12.0038erg; Discrepancy from stable energy: 67.5904%
Si	1.05018254633	-1.02655832418	0.434819153564
Si	-0.0765600983075	3.47763848342	2.02498247664
Si	2.08898702546	0.0297247558664	2.60159223244
Si	1.79002389723	4.08755027961	1.11348020769
Si	1.88730652315	0.803263910806	0.0264504335581
Si	5.06583565865	1.26251758934	4.56962940299
Si	0.592100263581	4.85368280813	3.74410480638
Si	4.05030753075	5.18545083938	1.97508979764
8
Frame: 2; Minimum total energy: -37.0377erg; Total energy at start (perturbed): 25.3424erg; Total energy now: -14.6724erg; Discrepancy from stable energy: 60.3852%
Si	0.983598015877	-1.17745280336	0.481550729885
Si	-0.059217586503	3.39740536506	2.02143497188
Si	2.07395074434	0.152723687785	2.47795646549
Si	1.79306427471	4.08894849154	1.10920213328
Si	1.95063363627	0.919635205863	0.0491348560201
Si	5.07314284044	1.26153011857	4.57609587344
Si	0.459871870495	4.78781333588	3.79445318086
Si	4.09660899657	5.19585522095	1.92786336992
8
Frame: 3; Minimum total energy: -37.0377erg; Total energy at start (perturbed): 25.3424erg; Total energy now: -14.2861erg; Discrepancy from stable energy: 61.4283%
Si	0.754231707866	-1.18575453748	0.699403517154
Si	-0.01766558601	3.11678467432	2.00682490708
Si	1.78317265383	0.427418152504	2.42372906937
Si	1.8204091098	4.09753621913	1.09775510357
Si	1.95731783475	0.965486971944	0.145566760016
Si	5.07314284044	1.26153011857	4.57609587344
Si	0.390071060411	4.7089904919	3.69308352177
Si	4.40678376086	5.08908317046	1.67050494048
8
Frame: 4; Minimum total energy: -37.0377erg; Total energy at start (perturbed): 25.3424erg; Total energy now: -16.6667erg; Discrepancy from stable energy: 55.0007%
Si	0.778301120961	-1.18397508702	0.653367375803
Si	-0.01056023192	3.07040929496	2.01793796842
Si	1.86553158894	0.42764050632	2.40094450335
Si	1.91102635275	4.13371001523	1.11741289901
Si	1.95465421141	0.959240929401	0.141746828265
Si	5.07314284044	1.26153011857	4.57609587344
Si	0.384358791831	4.68725310847	3.70860600504
Si	4.19243185786	5.10501457819	1.6774710318
8
Frame: 5; Minimum total energy: -37.0377erg; Total energy at start (perturbed): 25.3424erg; Total energy now: -17.1525erg; Discrepancy from stable energy: 53.6891%
Si	0.750617334206	-1.11050118074	0.498252664869
Si	-0.0267223065681	2.97369426534	2.05377890446
Si	1.95280193111	0.480557308019	2.45803769337
Si	1.96229571782	4.151100554	1.11799089376
Si	1.92020289858	0.940639869953	0.0746345419407
Si	5.07314284044	1.26153011857	4.57609587344
Si	0.408417393897	4.60352985326	3.71885161022
Si	4.00999963232	5.06626054941	1.67945412558
8
Frame: 6; Minimum total energy: -37.0377erg; Total energy at start (perturbed): 25.3424erg; Total energy now: -17.3912erg; Discrepancy from stable energy: 53.0447%
Si	0.578272403428	-0.932079470791	0.485397180601
Si	-0.0980967689583	2.96151585434	2.08837841152
Si	1.85320372861	0.559908027122	2.52243217999
Si	1.85207064634	4.08520533579	1.06220584599
Si	1.90157091138	0.944200469046	0.118024575453
Si	5.12548724537	1.2038549046	4.64204918514
Si	0.478913749033	4.58438747109	3.45527673094
Si	4.20532696811	4.91410981147	1.64377674489
8
Frame: 7; Minimum total energy: -37.0377erg; Total energy at start (perturbed): 25.3424erg; Total energy now: -18.4402erg; Discrepancy from stable energy: 50.2125%
Si	0.590507994502	-0.943428252467	0.417670383257
Si	-0.106085588438	2.8882777422	2.07963346266
Si	1.90757146814	0.565741584438	2.4790025793
Si	1.86923315206	4.09055629951	1.06337524443
Si	1.91426801909	0.958526831672	0.128093820225
Si	5.12529529785	1.20358792161	4.64101873878
Si	0.479422121582	4.57598991146	3.49999812466
Si	4.04984556002	4.93699264696	1.67297949023
8
Frame: 8; Minimum total energy: -37.0377erg; Total energy at start (perturbed): 25.3424erg; Total energy now: -18.738erg; Discrepancy from stable energy: 49.4083%
Si	0.487755463603	-0.947299387379	0.289112647647
Si	-0.16523821829	2.77653908999	2.07435605312
Si	2.00705797145	0.607412574237	2.44773712003
Si	1.87062740359	4.08094196511	1.04617728641
Si	1.95399458516	1.02394594977	0.130520277804
Si	5.12811959064	1.18717879133	4.65195947433
Si	0.509832833378	4.53859107566	3.49645779475
Si	3.90509281084	4.87477717832	1.69924952589
8
Frame: 9; Minimum total energy: -37.0377erg; Total energy at start (perturbed): 25.3424erg; Total energy now: -19.0819erg; Discrepancy from stable energy: 48.4797%
Si	0.447966732005	-0.908217470751	0.309809651739
Si	-0.189202098761	2.78103802376	2.09474032192
Si	1.98040925974	0.617295508477	2.47554300046
Si	1.81601542574	4.05134571417	1.01931958324
Si	1.94175757253	1.02436621141	0.1261101151
Si	5.12509327628	1.18305787639	4.6560130993
Si	0.539120707813	4.52445687331	3.38380495024
Si	3.96720240057	4.81660287343	1.69510587325
8
Frame: 10; Minimum total energy: -37.0377erg; Total energy at start (perturbed): 25.3424erg; Total energy now: -19.317erg; Discrepancy from stable energy: 47.8451%
Si	0.398368539729	-0.821977461662	0.169388835259
Si	-0.246249770032	2.6749103184	2.12592322712
Si	2.04715776559	0.624008594702	2.43217358962
Si	1.79235052301	4.02744760268	0.991616539628
Si	1.92252704465	1.02211483994	0.144423829217
Si	5.11806206912	1.17162053579	4.6575403283
Si	0.578952402422	4.49478643118	3.38804801078
Si	3.85056669987	4.73573834362	1.70652694041
8
Frame: 11; Minimum total energy: -37.0377erg; Total energy at start (perturbed): 25.3424erg; Total energy now: -18.4681erg; Discrepancy from stable energy: 50.1372%
Si	0.423934291565	-0.811058091672	0.1401588937
Si	-0.23392222771	2.7039079112	2.01725172296
Si	2.05416447003	0.622722707068	2.42209815701
Si	1.81659725454	4.04077442638	1.00476530698
Si	1.9240948585	1.01591194608	0.148476991314
Si	5.13118322788	1.09685141145	4.70948986205
Si	0.567533724496	4.50867722508	3.4414154368
Si	3.81697435595	4.76723589546	1.71757388937
8
Frame: 12; Minimum total energy: -37.0377erg; Total energy at start (perturbed): 25.3424erg; Total energy now: -19.338erg; Discrepancy from stable energy: 47.7883%
Si	0.396628366186	-0.861987560055	0.225934212119
Si	-0.24111711523	2.71675681813	2.03558988194
Si	2.03106551332	0.631635813838	2.44651622756
Si	1.77509378617	4.01960845616	0.984597460667
Si	1.92617072789	1.02762227719	0.141933395386
Si	5.10054127107	1.1526786353	4.68456216395
Si	0.584731615068	4.48551936489	3.32252422448
Si	3.88472981047	4.72803151068	1.70162131367
8
Frame: 13; Minimum total energy: -37.0377erg; Total energy at start (perturbed): 25.3424erg; Total energy now: -21.5348erg; Discrepancy from stable energy: 41.8573%
Si	0.151376930101	-0.873198382554	0.0444073631506
Si	-0.340660602075	2.51712303779	2.13342886838
Si	2.11770223476	0.619688032242	2.44880203077
Si	1.55780909541	3.87569930237	0.83824149398
Si	1.848247134	1.05076731107	0.0949461873466
Si	4.93590305337	1.37576661773	4.54661306556
Si	0.675624966647	4.28509677716	3.18994031685
Si	3.89282239408	4.40202293599	1.56989357495
8
Frame: 14; Minimum total energy: -37.0377erg; Total energy at start (perturbed): 25.3424erg; Total energy now: -22.3911erg; Discrepancy from stable energy: 39.5452%
Si	0.178919433599	-0.76379751493	-0.0501475979829
Si	-0.34712627998	2.39794797526	2.22348948652
Si	2.14343922155	0.561732585334	2.39678977416
Si	1.59544761907	3.87632121905	0.839474357326
Si	1.81567408499	1.05548891717	0.128117258904
Si	4.93065429934	1.37807594314	4.45948434113
Si	0.705800902381	4.30982639967	3.21430921874
Si	3.75209292114	4.39959858258	1.5565147226
8
Frame: 15; Minimum total energy: -37.0377erg; Total energy at start (perturbed): 25.3424erg; Total energy now: -22.8898erg; Discrepancy from stable energy: 38.1987%
Si	0.0794026602028	-0.636621500044	-0.0254958039247
Si	-0.381547118872	2.41545772693	2.32501684555
Si	2.16849599188	0.506743495801	2.35567844334
Si	1.54532632682	3.83696497767	0.796490578324
Si	1.76604146749	1.07909582472	0.148921581863
Si	4.89001104142	1.38438140708	4.37077589438
Si	0.716000884603	4.24693960486	3.10620826086
Si	3.84294767353	4.27629640325	1.49676124947
8
Frame: 16; Minimum total energy: -37.0377erg; Total energy at start (perturbed): 25.3424erg; Total energy now: -24.716erg; Discrepancy from stable energy: 33.2679%
Si	0.0781790846244	-0.633471834136	-0.0467341344396
Si	-0.38625338873	2.40408509711	2.31892262459
Si	2.17671316556	0.496157743422	2.34996113311
Si	1.55101320508	3.82553138828	0.791396726326
Si	1.76052302566	1.30455450023	0.152108557209
Si	4.88054007033	1.3837833095	4.36969044906
Si	0.71845114642	4.25360055131	3.1229307739
Si	3.83063085947	4.26806775978	1.49318923436
8
Frame: 17; Minimum total energy: -37.0377erg; Total energy at start (perturbed): 25.3424erg; Total energy now: -25.339erg; Discrepancy from stable energy: 31.5859%
Si	0.116446134135	-0.54615924033	-0.19097947844
Si	-0.416408867636	2.32978244257	2.26944314647
Si	2.24811610509	0.36450190576	2.24917970009
Si	1.59948105509	3.61992974647	0.706874112999
Si	1.65052025846	1.39714126442	0.255418220532
Si	4.79088554177	1.38647753015	4.35927606487
Si	0.731404148616	4.28847824254	3.24283353126
Si	3.73176216936	4.24396785732	1.44442780112
8
Frame: 18; Minimum total energy: -37.0377erg; Total energy at start (perturbed): 25.3424erg; Total energy now: -25.8704erg; Discrepancy from stable energy: 30.1514%
Si	0.0721007332268	-0.536585044104	-0.109000957683
Si	-0.410122786494	2.37198461597	2.27290704076
Si	2.22950413083	0.346255549743	2.25167914726
Si	1.59209739357	3.60466549639	0.685462924407
Si	1.62621913792	1.34648145937	0.268061432244
Si	4.74246571501	1.41812679779	4.34019583579
Si	0.745717407861	4.23417123983	3.14547985234
Si	3.79464824251	4.19892204615	1.38995397692
8
Frame: 19; Minimum total energy: -37.0377erg; Total energy at start (perturbed): 25.3424erg; Total energy now: -26.1471erg; Discrepancy from stable energy: 29.4042%
Si	-0.0441157907924	-0.444013141685	-0.426309215822
Si	-0.392811677412	2.39370000142	2.21039799183
Si	2.38412779856	0.0123108509581	2.13784073233
Si	1.65054882985	3.42689875095	0.519222238022
Si	1.39577072417	1.06879329385	0.336256770031
Si	4.39134042638	1.457740067	4.25932383301
Si	0.654023919241	4.11752756452	3.36206633428
Si	3.7656480156	4.03165760222	1.10030691113
8
Frame: 20; Minimum total energy: -37.0377erg; Total energy at start (perturbed): 25.3424erg; Total energy now: -28.5779erg; Discrepancy from stable energy: 22.8412%
Si	-0.174286617152	-0.397330480154	-0.29982926539
Si	-0.354927064736	2.36346139545	2.17872448287
Si	2.33647690814	0.00914044047425	2.16402520748
Si	1.59810541928	3.39826807351	0.440553039958
Si	1.38246688551	1.13844899924	0.436154041939
Si	4.36786531784	1.46123891654	4.23220694304
Si	0.789107039519	4.02592039431	3.23750640009
Si	3.81860193609	3.99919667632	1.06548449251
8
Frame: 21; Minimum total energy: -37.0377erg; Total energy at start (perturbed): 25.3424erg; Total energy now: -29.5113erg; Discrepancy from stable energy: 20.3211%
Si	-0.175799422723	-0.405250589966	-0.333919867157
Si	-0.346039723497	2.3282057528	2.13694254903
Si	2.33347744987	-0.00959299611308	2.16477912554
Si	1.58052593765	3.4128494501	0.342463989244
Si	1.3317558352	1.13988662223	0.47913257335
Si	4.34933844501	1.46771117773	4.20684230153
Si	0.827171967256	4.01505191598	3.33479130972
Si	3.80222489493	3.97727775654	1.0669222683
8
Frame: 22; Minimum total energy: -37.0377erg; Total energy at start (perturbed): 25.3424erg; Total energy now: -28.0398erg; Discrepancy from stable energy: 24.2941%
Si	-0.565668002984	-0.325522529841	-0.549984555935
Si	-0.362959205102	2.38733820624	2.16115821079
Si	2.27009200191	-0.36397497259	2.25205128274
Si	1.80172220822	3.29341554732	-0.263712282267
Si	0.948280208714	1.00937853525	1.02279335191
Si	4.06040999964	1.50966845697	3.76129563231
Si	1.17597800888	3.72910208964	3.23059344591
Si	3.58366316086	3.63881464323	0.925241699881
8
Frame: 23; Minimum total energy: -37.0377erg; Total energy at start (perturbed): 25.3424erg; Total energy now: -30.8749erg; Discrepancy from stable energy: 16.6393%
Si	-0.513003625898	-0.36972622567	-0.579056158936
Si	-0.356212069144	2.41973465832	2.11896902151
Si	2.33974023144	-0.295406571704	2.17970675529
Si	1.74489494838	3.14504620894	-0.187107743995
Si	0.960379315464	1.04014083414	0.930833958648
Si	4.01554723702	1.46830803353	3.80162414686
Si	1.02094961548	3.70302441773	3.25615294572
Si	3.62482481455	3.67976105422	0.916227688668
8
Frame: 24; Minimum total energy: -37.0377erg; Total energy at start (perturbed): 25.3424erg; Total energy now: -29.2076erg; Discrepancy from stable energy: 21.1409%
Si	-0.537725032182	-0.363853425304	-0.596059599188
Si	-0.315457341425	2.44105712932	2.15487629695
Si	2.24872692477	-0.387863742974	2.12213747614
Si	1.76139122907	3.25286535271	-0.220414034668
Si	0.977776142993	1.05708310153	1.00778151625
Si	4.11258714684	1.56996630258	3.84281291531
Si	1.05717032365	3.65338783429	3.24594811754
Si	3.59928773868	3.62582012684	0.96413426484
8
Frame: 25; Minimum total energy: -37.0377erg; Total energy at start (perturbed): 25.3424erg; Total energy now: -31.4342erg; Discrepancy from stable energy: 15.1292%
Si	-0.486407068154	-0.387642899097	-0.531420240073
Si	-0.467175323709	2.36274773519	1.98668963878
Si	2.32913804487	-0.345262896464	2.07556885681
Si	1.69372942062	2.96224404335	-0.0724636825992
Si	0.913113731639	1.02705322018	0.753787333767
Si	3.98004665454	1.42501361201	3.94202402772
Si	0.946491938082	3.79526963061	3.23892171141
Si	3.73792618299	3.77732030781	0.816757296217
8
Frame: 26; Minimum total energy: -37.0377erg; Total energy at start (perturbed): 25.3424erg; Total energy now: -31.9821erg; Discrepancy from stable energy: 13.65%
Si	-0.431500869783	-0.388985021016	-0.594378319717
Si	-0.472092554075	2.33111328995	2.05815033835
Si	2.31369296295	-0.315314082981	2.03454304646
Si	1.73750940418	2.96356561917	-0.137668305732
Si	0.901326429072	0.942132065028	0.757314216171
Si	3.95845182165	1.42735707864	3.88641282212
Si	0.879864408632	3.76901550901	3.30582182428
Si	3.64471517606	3.75490700395	0.781745724528
8
Frame: 27; Minimum total energy: -37.0377erg; Total energy at start (perturbed): 25.3424erg; Total energy now: -32.1783erg; Discrepancy from stable energy: 13.1202%
Si	-0.475117176151	-0.422515710259	-0.650403665133
Si	-0.499759179525	2.33315981149	2.01365834758
Si	2.24499136875	-0.359145109958	2.06212538196
Si	1.70980215749	2.79282044863	-0.218632819717
Si	0.86117751705	0.971823430085	0.729170548131
Si	3.89482824591	1.35673900736	3.84764683451
Si	0.850335754248	3.80147453953	3.28947148547
Si	3.67653082451	3.73669524009	0.733769124018
8
Frame: 28; Minimum total energy: -37.0377erg; Total energy at start (perturbed): 25.3424erg; Total energy now: -30.879erg; Discrepancy from stable energy: 16.6284%
Si	-0.475602850688	-0.428428022238	-0.642912034432
Si	-0.489165588683	2.34119664512	1.99417620666
Si	2.20194027064	-0.402593429374	2.06093984229
Si	1.55783407821	2.81127569346	-0.137647690853
Si	0.896417778075	1.04352570032	0.723277595489
Si	3.96640683013	1.32440876623	3.84858196404
Si	0.888809202171	3.8457489349	3.28011093332
Si	3.74800450261	3.7518495122	0.747478497422
8
Frame: 29; Minimum total energy: -37.0377erg; Total energy at start (perturbed): 25.3424erg; Total energy now: -32.0551erg; Discrepancy from stable energy: 13.4528%
Si	-0.453266886925	-0.423158274777	-0.647042248015
Si	-0.489661291902	2.33412520603	2.02750736116
Si	2.22993569187	-0.377052837197	2.00709952554
Si	1.64744143307	2.88902283261	-0.194349718168
Si	0.851194081033	0.915508589586	0.748089827183
Si	3.94191166132	1.33302731963	3.81634380617
Si	0.831509945376	3.78599968779	3.30349183764
Si	3.66995451048	3.73795317583	0.737666665593
8
Frame: 30; Minimum total energy: -37.0377erg; Total energy at start (perturbed): 25.3424erg; Total energy now: -32.2466erg; Discrepancy from stable energy: 12.9358%
Si	-0.492925642464	-0.431766381299	-0.658930419797
Si	-0.513586481319	2.31294418323	2.01946089475
Si	2.22546191097	-0.414370845088	1.99575613137
Si	1.76271709816	2.79332110609	-0.216022195194
Si	0.792445737071	0.910708673924	0.693464083438
Si	3.85736931886	1.30609120914	3.7521892795
Si	0.783608173171	3.73738327204	3.23943678088
Si	3.55090195942	3.69465242101	0.684252741926
8
Frame: 31; Minimum total energy: -37.0377erg; Total energy at start (perturbed): 25.3424erg; Total energy now: -31.6225erg; Discrepancy from stable energy: 14.6208%
Si	-0.473927159904	-0.419091520904	-0.644039448168
Si	-0.490399908241	2.31745397628	2.04283398209
Si	2.20166167241	-0.465797696958	1.95762870147
Si	1.75287515837	2.84074145917	-0.146048787515
Si	0.788614928229	0.920413583747	0.685500346699
Si	3.91500170274	1.31682006283	3.75874092794
Si	0.779545378182	3.74249420152	3.21488609718
Si	3.52184039223	3.69474195956	0.676708064091
8
Frame: 32; Minimum total energy: -37.0377erg; Total energy at start (perturbed): 25.3424erg; Total energy now: -32.247erg; Discrepancy from stable energy: 12.9346%
Si	-0.504987430605	-0.447290822588	-0.667759467799
Si	-0.530605992396	2.31168258319	1.99369089133
Si	2.17391631311	-0.438455083121	1.95107054632
Si	1.67670476069	2.78852915121	-0.240908310632
Si	0.80250109432	0.907880166352	0.705901794979
Si	3.88287900732	1.29580576528	3.75115504642
Si	0.789342970035	3.73796959829	3.26755635644
Si	3.60693183865	3.69570655614	0.694009835878
8
Frame: 33; Minimum total energy: -37.0377erg; Total energy at start (perturbed): 25.3424erg; Total energy now: -34.5223erg; Discrepancy from stable energy: 6.79154%
Si	-0.618565728346	-0.495265095214	-0.803108742527
Si	-0.657470208386	2.2259173905	1.91443320761
Si	2.08341363563	-0.482515033636	1.90395521894
Si	1.93039153548	2.58277695804	-0.576254647475
Si	0.615404024205	0.708979028477	0.622283818675
Si	3.59810387686	1.14871274185	3.58135361709
Si	0.655345319234	3.59691278714	3.26129859764
Si	3.35435084379	3.54711571276	0.544518829143
8
Frame: 34; Minimum total energy: -37.0377erg; Total energy at start (perturbed): 25.3424erg; Total energy now: -36.1014erg; Discrepancy from stable energy: 2.528%
Si	-0.64819252352	-0.514749528673	-0.805312319032
Si	-0.66707676096	2.2195454668	1.90405435046
Si	2.12700576467	-0.438941521207	1.96945295753
Si	1.88289617267	2.48714436482	-0.631525243362
Si	0.627457794008	0.744154360875	0.617335413349
Si	3.50675364135	1.07541393029	3.49984391336
Si	0.656734592467	3.60459091639	3.24393890175
Si	3.40740804759	3.59119832976	0.581807768698
8
Frame: 35; Minimum total energy: -37.0377erg; Total energy at start (perturbed): 25.3424erg; Total energy now: -36.6494erg; Discrepancy from stable energy: 1.04854%
Si	-0.73051775153	-0.545427364416	-0.81229276007
Si	-0.699259867989	2.19668289103	1.89255821237
Si	2.10162310535	-0.445968856633	2.00313262653
Si	1.88984749361	2.23369289725	-0.712828555232
Si	0.668656029577	0.836124944859	0.581700069544
Si	3.35551027521	0.992365282005	3.40095744166
Si	0.639271654015	3.62265336444	3.1744065283
Si	3.41915477772	3.63553244903	0.600617830496
8
Frame: 36; Minimum total energy: -37.0377erg; Total energy at start (perturbed): 25.3424erg; Total energy now: -36.878erg; Discrepancy from stable energy: 0.431288%
Si	-0.71551558538	-0.504161269945	-0.839269943118
Si	-0.731484350722	2.18700247252	1.89047288638
Si	2.05789537558	-0.449870114005	1.94525856823
Si	1.93020681978	2.28798476547	-0.770127795684
Si	0.61293159836	0.76793518246	0.577937009881
Si	3.34670353731	0.921019074322	3.34266075799
Si	0.621301375231	3.56728217061	3.22033280297
Si	3.33508039975	3.56071654081	0.573087491777